* 1/2 Watt Zener diodes:
.MODEL 1N746 D(IS=1E-11 RS=13.65 N=1.27 TT=5E-8 CJO=5.826E-10 VJ=0.75 M=0.33 BV=3.027 IBV=0.01 Vpk=3.3 mfg=Motorola_.5W type=zener)
.MODEL 1N747 D(IS=1E-11 RS=12.8 N=1.27 TT=5E-8 CJO=5.422E-10 VJ=0.75 M=0.33 BV=3.344 IBV=0.01 Vpk=3.6 mfg=Motorola_.5W type=zener)
.MODEL 1N748 D(IS=1E-11 RS=11.84 N=1.27 TT=5E-8 CJO=5.076E-10 VJ=0.75 M=0.33 BV=3.663 IBV=0.01 Vpk=3.9 mfg=Motorola_.5W type=zener)
.MODEL 1N749 D(IS=1E-11 RS=10.47 N=1.27 TT=5E-8 CJO=4.683E-10 VJ=0.75 M=0.33 BV=4.091 IBV=0.01 Vpk=4.3 mfg=Motorola_.5W type=zener)
.MODEL 1N750 D(Is=.88f Rs=.25 Cjo=175p M=.55 nbv=1.7 bv=4.7 Vj=.75 Isr=1.86n Nr=2 Ibv=20.245m Ibvl=1.96m Nbvl=15 Tbv1=-21.3u Vpk=4.7 mfg=OnSemi type=Zener)
.MODEL 1N751 D(IS=1E-11 RS=7.708 N=1.27 TT=5E-8 CJO=4.068E-10 VJ=0.75 M=0.33 BV=4.946 IBV=0.01 Vpk=5.1 mfg=Motorola_.5W type=zener)
.MODEL 1N752 D(IS=1E-11 RS=6.168 N=1.27 TT=5E-8 CJO=3.766E-10 VJ=0.75 M=0.33 BV=5.477 IBV=0.01 Vpk=5.6 mfg=Motorola_.5W type=zener)
.MODEL 1N753 D(IS=1E-11 RS=4.685 N=1.27 TT=5E-8 CJO=3.463E-10 VJ=0.75 M=0.33 BV=6.106 IBV=0.01 Vpk=6.2 mfg=Motorola_.5W type=zener)
.MODEL 1N754 D(IS=1E-11 RS=3.721 N=1.27 TT=5E-8 CJO=3.209E-10 VJ=0.75 M=0.33 BV=6.726 IBV=0.01 Vpk=6.8 mfg=Motorola_.5W type=zener)
.MODEL 1N755 D(IS=1E-11 RS=3.359 N=1.27 TT=5E-8 CJO=2.959E-10 VJ=0.75 M=0.33 BV=7.433 IBV=0.01 Vpk=7.5 mfg=Motorola_.5W type=zener)
.MODEL 1N756 D(IS=1E-11 RS=3.858 N=1.27 TT=5E-8 CJO=2.749E-10 VJ=0.75 M=0.33 BV=8.123 IBV=0.01 Vpk=8.2 mfg=Motorola_.5W type=zener)
.MODEL 1N757 D(IS=1E-11 RS=5.672 N=1.27 TT=5E-8 CJO=2.523E-10 VJ=0.75 M=0.33 BV=8.987 IBV=0.01 Vpk=9.1 mfg=Motorola_.5W type=zener)
.MODEL 1N758 D(IS=1E-11 RS=8.483 N=1.27 TT=5E-8 CJO=2.334E-10 VJ=0.75 M=0.33 BV=9.830 IBV=0.01 Vpk=10 mfg=Motorola_.5W type=zener)
.MODEL 1N759 D(IS=1E-11 RS=14.95 N=1.27 TT=5E-8 CJO=2.008E-10 VJ=0.75 M=0.33 BV=11.70 IBV=0.01 Vpk=12 mfg=Motorola_.5W type=zener)
* 1W Zener diodes:
.MODEL 1N4728 D(IS=5.97E-16 RS=0.659 TT=5.01E-8 CJO=3.63E-10 VJ=0.75 M=0.33 BV=3.251 IBV=0.0760 Vpk=3.3 mfg=Motorola_1W type=zener)
.MODEL 1N4729 D(IS=5.81E-16 RS=0.624 TT=5.01E-8 CJO=3.19E-10 VJ=0.75 M=0.33 BV=3.558 IBV=0.0690 Vpk=3.6 mfg=Motorola_1W type=zener)
.MODEL 1N4730 D(IS=6.63E-16 RS=0.795 TT=5.01E-8 CJO=2.83E-10 VJ=0.75 M=0.33 BV=3.851 IBV=0.0640 Vpk=3.9 mfg=Motorola_1W type=zener)
.MODEL 1N4731 D(IS=6.42E-16 RS=0.753 TT=5.01E-8 CJO=2.44E-10 VJ=0.75 M=0.33 BV=4.258 IBV=0.0580 Vpk=4.3 mfg=Motorola_1W type=zener)
.MODEL 1N4732 D(IS=6.71E-16 RS=0.811 TT=5.01E-8 CJO=2.14E-10 VJ=0.75 M=0.33 BV=4.659 IBV=0.0530 Vpk=4.7 mfg=Motorola_1W type=zener)
.MODEL 1N4733 D(IS=7.03E-16 RS=0.871 TT=5.01E-8 CJO=1.89E-10 VJ=0.75 M=0.33 BV=5.059 IBV=0.0490 Vpk=5.1 mfg=Motorola_1W type=zener)
.MODEL 1N4734 D(IS=7.32E-16 RS=0.924 TT=5.01E-8 CJO=1.64E-10 VJ=0.75 M=0.33 BV=5.561 IBV=0.0450 Vpk=5.6 mfg=Motorola_1W type=zener)
.MODEL 1N4735 D(IS=7.57E-16 RS=0.968 TT=5.01E-8 CJO=1.41E-10 VJ=0.75 M=0.33 BV=6.163 IBV=0.0410 Vpk=6.2 mfg=Motorola_1W type=zener)
.MODEL 1N4736 D(IS=7.76E-16 RS=1.000 TT=5.01E-8 CJO=1.23E-10 VJ=0.75 M=0.33 BV=6.766 IBV=0.0370 Vpk=6.8 mfg=Motorola_1W type=zener)
.MODEL 1N4737 D(IS=9.33E-16 RS=1.230 TT=5.01E-8 CJO=1.06E-10 VJ=0.75 M=0.33 BV=7.461 IBV=0.0340 Vpk=7.5 mfg=Motorola_1W type=zener)
.MODEL 1N4738 D(IS=1.06E-15 RS=1.410 TT=5.01E-8 CJO=9.28E-11 VJ=0.75 M=0.33 BV=8.160 IBV=0.0310 Vpk=8.2 mfg=Motorola_1W type=zener)
.MODEL 1N4739 D(IS=1.46E-15 RS=1.820 TT=5.01E-8 CJO=7.94E-11 VJ=0.75 M=0.33 BV=9.053 IBV=0.0280 Vpk=9.1 mfg=Motorola_1W type=zener)
.MODEL 1N4740 D(IS=2.91E-15 RS=2.710 TT=5.01E-8 CJO=6.89E-11 VJ=0.75 M=0.33 BV=9.937 IBV=0.0250 Vpk=10 mfg=Motorola_1W type=zener)
.MODEL 1N4741 D(IS=7.14E-15 RS=3.870 TT=5.01E-8 CJO=1.01E-10 VJ=0.75 M=0.33 BV=10.91 IBV=0.0230 Vpk=11 mfg=Motorola_1W type=zener)
.MODEL 1N4742 D(IS=9.67E-15 RS=4.260 TT=5.01E-8 CJO=9.42E-11 VJ=0.75 M=0.33 BV=11.91 IBV=0.0210 Vpk=12 mfg=Motorola_1W type=zener)
.MODEL 1N4743 D(IS=1.28E-14 RS=4.630 TT=5.01E-8 CJO=8.81E-11 VJ=0.75 M=0.33 BV=12.91 IBV=0.0190 Vpk=13 mfg=Motorola_1W type=zener)
.MODEL 1N4744 D(IS=5.32E-14 RS=6.470 TT=5.01E-8 CJO=7.83E-11 VJ=0.75 M=0.33 BV=14.89 IBV=0.0170 Vpk=15 mfg=Motorola_1W type=zener)
.MODEL 1N4745 D(IS=1.02E-13 RS=7.330 TT=5.01E-8 CJO=7.44E-11 VJ=0.75 M=0.33 BV=15.89 IBV=0.0155 Vpk=16 mfg=Motorola_1W type=zener)
.MODEL 1N4746 D(IS=4.19E-13 RS=9.150 TT=5.01E-8 CJO=6.78E-11 VJ=0.75 M=0.33 BV=17.88 IBV=0.0140 Vpk=18 mfg=Motorola_1W type=zener)
.MODEL 1N4747 D(IS=1.65E-12 RS=10.90 TT=5.01E-8 CJO=6.25E-11 VJ=0.75 M=0.33 BV=19.87 IBV=0.0125 Vpk=20 mfg=Motorola_1W type=zener)
.MODEL 1N4748 D(IS=3.11E-12 RS=11.70 TT=5.01E-8 CJO=5.82E-11 VJ=0.75 M=0.33 BV=21.87 IBV=0.0115 Vpk=22 mfg=Motorola_1W type=zener)
.MODEL 1N4749 D(IS=5.71E-12 RS=12.50 TT=5.01E-8 CJO=5.46E-11 VJ=0.75 M=0.33 BV=23.88 IBV=0.0105 Vpk=24 mfg=Motorola_1W type=zener)
.MODEL 1N4750 D(IS=2.22E-10 RS=17.20 TT=5.01E-8 CJO=5.02E-11 VJ=0.75 M=0.33 BV=26.84 IBV=0.0095 Vpk=27 mfg=Motorola_1W type=zener)
.MODEL 1N4751 D(IS=2.67E-09 RS=21.90 TT=5.01E-8 CJO=4.66E-11 VJ=0.75 M=0.33 BV=29.82 IBV=0.0085 Vpk=30 mfg=Motorola_1W type=zener)
.MODEL 1N4752 D(IS=2.67E-09 RS=26.50 TT=5.01E-8 CJO=4.38E-11 VJ=0.75 M=0.33 BV=32.81 IBV=0.0075 Vpk=33 mfg=Motorola_1W type=zener)
.MODEL 1N4753 D(IS=2.67E-09 RS=31.30 TT=5.01E-8 CJO=4.14E-11 VJ=0.75 M=0.33 BV=35.79 IBV=0.0070 Vpk=36 mfg=Motorola_1W type=zener)
.MODEL 1N4754 D(IS=2.67E-09 RS=36.00 TT=5.01E-8 CJO=3.93E-11 VJ=0.75 M=0.33 BV=38.78 IBV=0.0065 Vpk=39 mfg=Motorola_1W type=zener)
.MODEL 1N4755 D(IS=2.67E-09 RS=40.70 TT=5.01E-8 CJO=3.71E-11 VJ=0.75 M=0.33 BV=42.77 IBV=0.0060 Vpk=43 mfg=Motorola_1W type=zener)
.MODEL 1N4756 D(IS=2.67E-09 RS=50.30 TT=5.01E-8 CJO=3.52E-11 VJ=0.75 M=0.33 BV=46.74 IBV=0.0055 Vpk=47 mfg=Motorola_1W type=zener)
.MODEL 1N4757 D(IS=2.67E-09 RS=59.80 TT=5.01E-8 CJO=3.33E-11 VJ=0.75 M=0.33 BV=50.72 IBV=0.0050 Vpk=51 mfg=Motorola_1W type=zener)
.MODEL 1N4758 D(IS=2.67E-09 RS=69.20 TT=5.01E-8 CJO=3.19E-11 VJ=0.75 M=0.33 BV=55.71 IBV=0.0045 Vpk=56 mfg=Motorola_1W type=zener)
.MODEL 1N4759 D(IS=2.67E-09 RS=78.50 TT=5.01E-8 CJO=3.03E-11 VJ=0.75 M=0.33 BV=61.71 IBV=0.0040 Vpk=62 mfg=Motorola_1W type=zener)
.MODEL 1N4760 D(IS=2.67E-09 RS=93.00 TT=5.01E-8 CJO=2.89E-11 VJ=0.75 M=0.33 BV=67.68 IBV=0.0037 Vpk=68 mfg=Motorola_1W type=zener)
.MODEL 1N4761 D(IS=2.67E-09 RS=117.0 TT=5.01E-8 CJO=2.76E-11 VJ=0.75 M=0.33 BV=74.65 IBV=0.0033 Vpk=75 mfg=Motorola_1W type=zener)
.MODEL 1N4762 D(IS=2.67E-09 RS=141.0 TT=5.01E-8 CJO=2.65E-11 VJ=0.75 M=0.33 BV=81.61 IBV=0.0030 Vpk=82 mfg=Motorola_1W type=zener)
.MODEL 1N4763 D(IS=2.67E-09 RS=190.0 TT=5.01E-8 CJO=2.54E-11 VJ=0.75 M=0.33 BV=90.51 IBV=0.0028 Vpk=91 mfg=Motorola_1W type=zener)
.MODEL 1N4764 D(IS=2.67E-09 RS=289.0 TT=5.01E-8 CJO=2.45E-11 VJ=0.75 M=0.33 BV=99.32 IBV=0.0025 Vpk=100 mfg=Motorola_1W type=zener)
.MODEL BZX84C10/ZTX D IS=1.132E-15 N=1.030 RS=.11 IKF=1 XTI=3 EG=1.11 CJO=90.62E-12 M=.33 VJ=.6975 FC=.5 BV=10.11 IBV=.3255 TT=108.2E-9 Vpk=10 mfg=Zetex type=Zener
.MODEL BZX84C11/ZTX D IS=544.3E-18 N=1.011 RS=.14 IKF=1 XTI=3 EG=1.11 CJO=80.82E-12 M=.327 VJ=.7056 FC=.5 BV=11.11 IBV=.3262 TT=122.6E-9 Vpk=11 mfg=Zetex type=Zener
.MODEL BZX84C12/ZTX D IS=869.1E-18 N=1.02 RS=.12 IKF=1 XTI=3 EG=1.11 CJO=73.83E-12 M=.3306 VJ=.7651 FC=.5 BV=12.1 IBV=.2602 TT=144.3E-9 Vpk=12 mfg=Zetex type=Zener
.MODEL BZX84C13/ZTX D IS=513.2E-18 N=1.001 RS=.1 IKF=1 XTI=3 EG=1.11 CJO=62.95E-12 M=.3341 VJ=.8633 FC=.5 BV=13.1 IBV=.2164 TT=173.1E-9 Vpk=13 mfg=Zetex type=Zener
.MODEL BZX84C15/ZTX D IS=1.116E-15 N=1.027 RS=.11 IKF=1 XTI=3 EG=1.11 CJO=56.98E-12 M=.3326 VJ=.803 FC=.5 BV=15.1 IBV=.2165 TT=209.2E-9 Vpk=15 mfg=Zetex type=Zener
.MODEL BZX84C16/ZTX D IS=556.3E-18 N=1.013 RS=.12 IKF=1 XTI=3 EG=1.11 CJO=52.99E-12 M=.3286 VJ=.7205 FC=.5 BV=16.09 IBV=.1623 TT=187.6E-9 Vpk=16 mfg=Zetex type=Zener
.MODEL BZX84C18/ZTX D IS=723.9E-18 N=1.02 RS=.13 IKF=1 XTI=3 EG=1.11 CJO=44.99E-12 M=.3353 VJ=.828 FC=.5 BV=18.09 IBV=.1442 TT=281.3E-9 Vpk=18 mfg=Zetex type=Zener
.MODEL BZX84C20/ZTX D IS=11.83E-15 N=1.08 RS=.09 IKF=1 XTI=3 EG=1.11 CJO=42.64E-12 M=.2707 VJ=.3905 FC=.5 BV=20.08 IBV=.1178 TT=295.8E-9 Vpk=20 mfg=Zetex type=Zener
.MODEL BZX84C22/ZTX D IS=1.707E-15 N=1.042 RS=.14 IKF=1 XTI=3 EG=1.11 CJO=37.64E-12 M=.3301 VJ=.7799 FC=.5 BV=22.08 IBV=.1179 TT=310.2E-9 Vpk=22 mfg=Zetex type=Zener
.MODEL BZX84C24/ZTX D IS=1.63E-15 N=1.039 RS=.13 IKF=1 XTI=3 EG=1.11 CJO=35.39E-12 M=.3309 VJ=.7731 FC=.5 BV=24.07 IBV=92.59E-3 TT=303.0E-9 Vpk=24 mfg=Zetex type=Zener
.MODEL BZX84C27/ZTX D IS=53.96E-15 N=1.136 RS=.0987 IKF=1 XTI=3 EG=1.11 CJO=33.38E-12 M=.3006 VJ=.4245 FC=.5 BV=27.12 IBV=.2024 TT=346.2E-9 Vpk=27 mfg=Zetex type=Zener
.MODEL BZX84C2V7/ZTX D IS=3.677E-15 N=1.059 RS=.12 IKF=1 XTI=3 EG=1.11 CJO=312.1E-12 M=.2052 VJ=.3971 FC=.5 BV=2.766 IBV=64.76E-3 TT=57.71E-9 Vpk=2.7 mfg=Zetex type=Zener
.MODEL BZX84C30/ZTX D IS=2.669E-15 N=1.055 RS=.11 IKF=1 XTI=3 EG=1.11 CJO=30.05E-12 M=.3324 VJ=.7923 FC=.5 BV=30.12 IBV=.2024 TT=461.7E-9 Vpk=30 mfg=Zetex type=Zener
.MODEL BZX84C33/ZTX D IS=9.428E-15 N=1.099 RS=.12 IKF=1 XTI=3 EG=1.11 CJO=27.62E-12 M=.3268 VJ=.7365 FC=.5 BV=33.12 IBV=.2024 TT=404.0E-9 Vpk=33 mfg=Zetex type=Zener
.MODEL BZX84C36/ZTX D IS=6.202E-15 N=1.081 RS=.1 IKF=1 XTI=3 EG=1.11 CJO=25.70E-12 M=.3366 VJ=.7798 FC=.5 BV=36.12 IBV=.1799 TT=418.4E-9 Vpk=36 mfg=Zetex type=Zener
.MODEL BZX84C39/ZTX D IS=7.921E-15 N=1.1 RS=.12 IKF=1 XTI=3 EG=1.11 CJO=23.83E-12 M=.3437 VJ=.7925 FC=.5 BV=39.11 IBV=.1245 TT=634.8E-9 Vpk=39 mfg=Zetex type=Zener

.MODEL BZX84C3V0/ZTX D IS=4.311E-15 N=1.057 RS=.12 IKF=1 XTI=3 EG=1.11 CJO=291.5E-12 M=.2719 VJ=.5248 FC=.5 BV=3.066 IBV=64.76E-3 TT=64.92E-9 Vpk=3.0 mfg=Zetex type=Zener
.MODEL BZX84C3V3/ZTX D IS=1.636E-15 N=1.028 RS=.13 IKF=1 XTI=3 EG=1.11 CJO=283.5E-12 M=.2019 VJ=.3905 FC=.5 BV=3.366 IBV=64.77E-3 TT=57.71E-9 Vpk=3.3 mfg=Zetex type=Zener
.MODEL BZX84C3V6/ZTX D IS=522.2E-18 N=1.004 RS=.13 IKF=1 XTI=3 EG=1.11 CJO=256.6E-12 M=.2332 VJ=.4593 FC=.5 BV=3.666 IBV=64.77E-3 TT=389.5E-9 Vpk=3.6 mfg=Zetex type=Zener
.MODEL BZX84C3V9/ZTX D IS=193.4E-15 N=1.219 RS=.1 IKF=1 XTI=3 EG=1.11 CJO=239.5E-12 M=.3295 VJ=.7686 FC=.5 BV=3.966 IBV=64.74E-3 TT=360.7E-9 Vpk=3.9 mfg=Zetex type=Zener
.MODEL BZX84C43/ZTX D IS=228.7E-15 N=1.22 RS=.11 IKF=1 XTI=3 EG=1.11 CJO=21.92E-12 M=.3415 VJ=.7656 FC=.5 BV=43.1 IBV=.1079 TT=274.1E-9 Vpk=43 mfg=Zetex type=Zener
.MODEL BZX84C47/ZTX D IS=19.1E-15 N=1.131 RS=.1 IKF=1 XTI=3 EG=1.11 CJO=21.05E-12 M=.35 VJ=.7818 FC=.5 BV=47.1 IBV=95.16E-3 TT=649.2E-9 Vpk=47 mfg=Zetex type=Zener
.MODEL BZX84C4V3/ZTX D IS=187E-15 N=1.218 RS=.09 IKF=1 XTI=3 EG=1.11 CJO=221.2E-12 M=.3317 VJ=.7266 FC=.5 BV=4.367 IBV=69.05E-3 TT=331.8E-9 Vpk=4.3 mfg=Zetex type=Zener
.MODEL BZX84C4V7/ZTX D IS=207.3E-15 N=1.224 RS=.14 IKF=1 XTI=3 EG=1.11 CJO=210.7E-12 M=.2286 VJ=.411 FC=.5 BV=4.771 IBV=81.00E-3 Vpk=4.7 mfg=Zetex type=Zener
.MODEL BZX84C5V6/ZTX D IS=89.48E-15 N=1.203 RS=.09 IKF=1 XTI=3 EG=1.11 CJO=179.6E-12 M=.3067 VJ=.6563 FC=.5 BV=5.690 IBV=.1621 TT=562.7E-9 Vpk=5.6 mfg=Zetex type=Zener
.MODEL BZX84C6V2/ZTX D IS=180.4E-15 N=1.228 RS=.09 IKF=1 XTI=3 EG=1.11 CJO=149.5E-12 M=.3207 VJ=.6676 FC=.5 BV=6.326 IBV=.654 TT=418.4E-9 Vpk=6.2 mfg=Zetex type=Zener
.MODEL BZX84C6V8/ZTX D IS=137.8E-15 N=1.225 RS=.13 IKF=1 XTI=3 EG=1.11 CJO=129.3E-12 M=.3277 VJ=.735 FC=.5 BV=6.915 IBV=.4358 TT=620.4E-9 Vpk=6.8 mfg=Zetex type=Zener
.MODEL BZX84C7V5/ZTX D IS=398.3E-15 N=1.270 RS=.12 IKF=1 XTI=3 EG=1.11 CJO=111.9E-12 M=.3294 VJ=.6802 FC=.5 BV=7.615 IBV=.4354 TT=476.1E-9 Vpk=7.5 mfg=Zetex type=Zener
.MODEL BZX84C8V2/ZTX D IS=390.6E-15 N=1.271 RS=.12 IKF=1 XTI=3 EG=1.11 CJO=96.20E-12 M=.333 VJ=.7508 FC=.5 BV=8.315 IBV=.4354 TT=519.4E-9 Vpk=8.2 mfg=Zetex type=Zener
.MODEL BZX84C9V1/ZTX D IS=522.2E-18 N=1.004 RS=.12 IKF=1 XTI=3 EG=1.11 CJO=96.83E-12 M=.3303 VJ=.7662 FC=.5 BV=9.215 IBV=.4354 TT=93.78E-9 Vpk=9.1 mfg=Zetex type=Zener
*
.MODEL BZX79C5V1 D(IS=2.4710E-9 N=2.0880 RS=1.0000E-3 IKF=4.900 CJO=95.650E-12 M=.3487 VJ=.7022 ISR=10.010E-21 BV=5.30 IBV=.8623 TT=140E-9 Vpk=5.1 mfg=NXP type=zener)
.MODEL BZX79C5V6 D(IS=2.4710E-9 N=2.0880 RS=1.0000E-3 IKF=5.400 CJO=95.650E-12 M=.3487 VJ=.7022 ISR=10.010E-21 BV=5.80 IBV=.8623 TT=140E-9 Vpk=5.6 mfg=NXP type=zener)
.MODEL BZX79C6V2 D(IS=2.4710E-9 N=2.0880 RS=1.0000E-3 IKF=5.900 CJO=95.650E-12 M=.3487 VJ=.7022 ISR=10.010E-21 BV=6.50 IBV=.8623 TT=140E-9 Vpk=6.2 mfg=NXP type=zener)
.MODEL BZX79C6V8 D(IS=2.4710E-9 N=2.0880 RS=1.0000E-3 IKF=6.500 CJO=95.650E-12 M=.3487 VJ=.7022 ISR=10.010E-21 BV=7.10 IBV=.8623 TT=140E-9 Vpk=6.8 mfg=NXP type=zener)
.MODEL BZX79C7V5 D(IS=2.4710E-9 N=2.0880 RS=1.0000E-3 IKF=7.000 CJO=95.650E-12 M=.3487 VJ=.7022 ISR=10.010E-21 BV=8.00 IBV=.8623 TT=140E-9 Vpk=7.5 mfg=NXP type=zener)
.MODEL BZX79C8V2 D(IS=2.4710E-9 N=2.0880 RS=1.0000E-3 IKF=7.600 CJO=95.650E-12 M=.3487 VJ=.7022 ISR=10.010E-21 BV=8.70 IBV=.8623 TT=140E-9 Vpk=8.2 mfg=NXP type=zener)
.MODEL BZX84C10L D(Is=.6n Rs=.5 Cjo=150p nbv=5 bv=10 Ibv=1m Vpk=10 mfg=OnSemi type=Zener)
.MODEL BZX84C12L D(Is=.6n Rs=.5 Cjo=150p nbv=5 bv=12 Ibv=1m Vpk=12 mfg=OnSemi type=Zener)
.MODEL BZX84C15L D(Is=.6n Rs=.5 Cjo=110p nbv=6 bv=15 Ibv=1m Vpk=15 mfg=OnSemi type=Zener)
.MODEL BZX84C6V2L D(Is=1.5n Rs=.5 Cjo=185p nbv=3 bv=6.2 Ibv=1m Vpk=6.2 mfg=OnSemi type=Zener)
.MODEL BZX84C8V2L D(Is=.8n Rs=.5 Cjo=135p nbv=3 bv=8.2 Ibv=1m Vpk=8.2 mfg=OnSemi type=Zener)
