Version 4
SHEET 1 1736 692
WIRE 416 -96 384 -96
WIRE 528 -96 496 -96
WIRE 544 -96 528 -96
WIRE 640 -96 624 -96
WIRE 384 -80 384 -96
WIRE 864 -80 864 -96
WIRE 240 -48 240 -64
WIRE 784 -16 784 -32
WIRE 576 0 576 -16
WIRE 672 0 672 -32
WIRE 752 0 672 0
WIRE 528 16 528 -96
WIRE 544 16 528 16
WIRE 864 16 864 0
WIRE 864 16 816 16
WIRE 896 16 864 16
WIRE 640 32 640 -96
WIRE 640 32 608 32
WIRE 720 32 720 -32
WIRE 720 32 640 32
WIRE 752 32 720 32
WIRE 832 32 816 32
WIRE 240 48 240 32
WIRE 304 48 240 48
WIRE 368 48 368 16
WIRE 400 48 368 48
WIRE 512 48 480 48
WIRE 544 48 512 48
WIRE 240 64 240 48
WIRE 784 64 784 48
WIRE 832 64 832 32
WIRE 368 80 368 48
WIRE 512 80 512 48
WIRE 576 80 576 64
WIRE 672 80 672 0
WIRE 304 96 304 48
WIRE 896 112 896 80
WIRE 240 160 240 144
WIRE 368 192 368 160
WIRE 512 192 512 160
WIRE 672 192 672 160
WIRE 896 224 896 192
FLAG 304 96 0
FLAG 240 -64 +V1
FLAG 240 160 -V1
FLAG 784 -32 +V1
FLAG 896 16 PWM-Out
FLAG 784 64 -V1
FLAG 672 -32 TriWave
FLAG 368 16 VC
FLAG 864 -96 V2
FLAG 576 -16 +V1
FLAG 576 80 -V1
FLAG 720 -32 Sweep
FLAG 672 192 0
FLAG 512 192 -V1
FLAG 384 -80 0
FLAG 368 192 0
FLAG 832 64 0
FLAG 896 224 0
FLAG 896 80 V2
SYMBOL voltage 240 -64 R0
WINDOW 0 -15 56 Left 2
WINDOW 3 65 16 Right 2
WINDOW 123 0 0 Left 0
WINDOW 39 0 0 Left 0
SYMATTR InstName V1
SYMATTR Value 7.4V
SYMBOL voltage 368 64 R0
WINDOW 0 -15 56 Left 2
WINDOW 3 1 161 Center 1
WINDOW 123 0 0 Left 0
WINDOW 39 0 0 Left 0
SYMATTR InstName V3
SYMATTR Value SINE(1.65 1.65 500)
SYMBOL voltage 672 64 R0
WINDOW 0 -13 56 Left 2
WINDOW 3 1 160 Center 1
WINDOW 123 0 0 Left 0
WINDOW 39 0 0 Left 0
SYMATTR InstName V4
SYMATTR Value PULSE(-5 5 1p 25u 25u 1p 50u)
SYMBOL res 848 -96 R0
WINDOW 0 33 80 Left 2
WINDOW 3 31 16 Left 2
SYMATTR InstName R1
SYMATTR Value 10K
SYMBOL CA3140 576 32 R0
WINDOW 0 -11 -2 Left 1
WINDOW 3 5 31 Left 1
SYMATTR InstName U1
SYMBOL res 512 -112 R90
WINDOW 0 1 96 VBottom 2
WINDOW 3 1 31 VBottom 2
SYMATTR InstName R3
SYMATTR Value 3.66K
SYMBOL res 640 -112 R90
WINDOW 0 1 88 VBottom 2
WINDOW 3 1 32 VBottom 2
SYMATTR InstName R2
SYMATTR Value 10K
SYMBOL res 496 64 R0
WINDOW 0 -49 33 Left 2
WINDOW 3 -51 63 Left 2
SYMATTR InstName R4
SYMATTR Value 10K
SYMBOL res 496 32 R90
WINDOW 0 1 80 VBottom 2
WINDOW 3 1 15 VBottom 2
SYMATTR InstName R5
SYMATTR Value 2.24K
SYMBOL voltage 240 48 R0
WINDOW 0 -15 56 Left 2
WINDOW 3 65 96 Right 2
WINDOW 123 0 0 Left 0
WINDOW 39 0 0 Left 0
SYMATTR InstName V2
SYMATTR Value 7.4V
SYMBOL LM311 784 -48 R0
WINDOW 0 -14 63 Left 1
WINDOW 3 -87 110 Left 2
SYMATTR InstName U3
SYMBOL voltage 896 96 R0
WINDOW 0 -15 56 Left 2
WINDOW 3 16 8 Left 2
WINDOW 123 0 0 Left 0
WINDOW 39 0 0 Left 0
SYMATTR InstName V5
SYMATTR Value 5V
TEXT 616 256 Left 2 !.tran 4m startup
TEXT 216 280 Left 2 !.lib Occomp.lib
TEXT 216 256 Left 2 !.lib potentiometer_standard.lib
TEXT 400 -168 Left 1 ;5V: R3 = 5.95K\n3.3V: R3 = 3.66K
TEXT 384 -24 Left 1 ;5V: R5 = 3.38K\n3.3V: R5 = 2.24K
