Version 4
SHEET 1 1736 724
WIRE 32 -240 32 -256
WIRE 112 -240 32 -240
WIRE 32 -224 32 -240
WIRE 112 -176 112 -240
WIRE -112 -160 -112 -176
WIRE -144 -144 -224 -144
WIRE -64 -128 -80 -128
WIRE 32 -128 32 -144
WIRE 32 -128 16 -128
WIRE 48 -128 32 -128
WIRE -144 -112 -160 -112
WIRE -112 -80 -112 -96
WIRE 112 -64 112 -80
WIRE -320 -32 -320 -64
WIRE 288 -32 256 -32
WIRE 384 -32 384 -80
WIRE 384 -32 352 -32
WIRE -160 0 -160 -112
WIRE -160 0 -192 0
WIRE 544 0 544 -32
WIRE 112 32 112 16
WIRE 192 32 112 32
WIRE -192 48 -192 0
WIRE 32 48 32 32
WIRE -160 64 -160 0
WIRE 0 64 -160 64
WIRE 320 64 320 48
WIRE 112 80 112 32
WIRE 112 80 64 80
WIRE 144 80 112 80
WIRE 256 80 256 -32
WIRE 256 80 224 80
WIRE 288 80 256 80
WIRE 480 80 480 64
WIRE -320 96 -320 48
WIRE -256 96 -320 96
WIRE -224 96 -224 -144
WIRE 0 96 -224 96
WIRE 384 96 384 -32
WIRE 384 96 352 96
WIRE 448 96 384 96
WIRE 288 112 256 112
WIRE 544 112 544 80
WIRE 544 112 512 112
WIRE 576 112 544 112
WIRE 32 128 32 112
WIRE 448 128 416 128
WIRE 528 128 512 128
WIRE -320 144 -320 96
WIRE -256 144 -256 96
WIRE 256 144 256 112
WIRE 320 144 320 128
WIRE 480 160 480 144
WIRE 528 160 528 128
WIRE -224 176 -224 96
WIRE -128 176 -224 176
WIRE 112 176 112 80
WIRE 112 176 -48 176
WIRE 144 176 112 176
WIRE -224 240 -224 176
WIRE -128 240 -224 240
WIRE 384 240 384 96
WIRE 384 240 -48 240
WIRE -320 256 -320 224
WIRE 576 256 576 224
WIRE 160 368 80 368
WIRE 272 368 240 368
WIRE 304 368 272 368
WIRE 416 368 416 128
WIRE 416 368 384 368
WIRE 576 368 576 336
WIRE 80 384 80 368
WIRE 336 448 336 432
WIRE 272 464 272 368
WIRE 304 464 272 464
WIRE 416 480 416 368
WIRE 416 480 368 480
WIRE 448 480 416 480
WIRE 96 496 48 496
WIRE 128 496 96 496
WIRE 240 496 240 448
WIRE 240 496 208 496
WIRE 304 496 240 496
WIRE 96 528 96 496
WIRE 240 528 240 496
WIRE 336 528 336 512
WIRE 96 640 96 608
WIRE 240 640 240 608
FLAG -256 144 0
FLAG -320 -64 +V
FLAG -320 256 -V
FLAG 320 48 +V
FLAG 384 -80 TriWave
FLAG 480 64 +V
FLAG 336 432 +V
FLAG 576 112 PWM-Out
FLAG 48 496 VC
FLAG 32 32 +V
FLAG 32 128 -V
FLAG 320 144 -V
FLAG -112 -80 -V
FLAG -112 -176 +V
FLAG 32 -256 +V
FLAG 144 176 SqWave
FLAG -192 48 0
FLAG 480 160 -V
FLAG 336 528 -V
FLAG 80 384 0
FLAG 448 480 Sweep
FLAG 240 640 -V
FLAG 240 448 TP1
FLAG 96 640 0
FLAG 256 144 0
FLAG 528 160 0
FLAG 576 368 0
FLAG 576 224 V2
FLAG 544 -32 V2
SYMBOL cap 352 -48 R90
WINDOW 0 7 54 VBottom 2
WINDOW 3 57 29 VBottom 2
SYMATTR InstName C1
SYMATTR Value 0.001µf
SYMBOL potentiometer 128 96 R270
WINDOW 0 49 16 VRight 2
WINDOW 3 -109 -34 VRight 1
SYMATTR InstName R1
SYMATTR Value Rtot=100K wiper=0.24
SYMBOL res 400 352 R90
WINDOW 0 1 87 VBottom 2
WINDOW 3 1 23 VBottom 2
SYMATTR InstName R10
SYMATTR Value 100K
SYMBOL voltage -320 -48 R0
WINDOW 0 -13 58 Left 2
WINDOW 3 48 0 Right 2
WINDOW 123 0 0 Left 0
WINDOW 39 0 0 Left 0
SYMATTR InstName V1
SYMATTR Value 12
SYMBOL CA3140 320 96 R0
WINDOW 0 -17 -1 Left 1
WINDOW 3 3 32 Left 1
SYMATTR InstName U2a
SYMBOL OpAmps\\opamp2 -112 -192 R0
WINDOW 0 -22 64 Left 1
WINDOW 3 9 97 Left 1
SYMATTR InstName U1a
SYMATTR Value LM393
SYMBOL OpAmps\\opamp2 32 16 R0
WINDOW 0 -23 63 Left 1
WINDOW 3 9 95 Left 1
SYMATTR InstName U1b
SYMATTR Value LM393
SYMBOL res -32 160 R90
WINDOW 0 0 80 VBottom 2
WINDOW 3 -27 27 VTop 2
SYMATTR InstName R3
SYMATTR Value 250K
SYMBOL res -32 224 R90
WINDOW 0 1 80 VBottom 2
WINDOW 3 -27 26 VTop 2
SYMATTR InstName R2
SYMATTR Value 100K
SYMBOL res 32 -144 R90
WINDOW 0 1 96 VBottom 2
WINDOW 3 1 48 VBottom 2
SYMATTR InstName R4
SYMATTR Value 20K
SYMBOL pnp 48 -80 M180
WINDOW 0 49 32 Left 2
WINDOW 3 49 61 Left 2
SYMATTR InstName Q1
SYMATTR Value 2N3906
SYMBOL res 16 -240 R0
WINDOW 0 31 13 Left 2
WINDOW 3 32 48 Left 2
SYMATTR InstName R5
SYMATTR Value 2.7K
SYMBOL CA3140 336 480 R0
WINDOW 0 -17 -1 Left 1
WINDOW 3 8 34 Left 1
SYMATTR InstName U2b
SYMBOL res 224 512 R0
WINDOW 0 35 48 Left 2
WINDOW 3 33 84 Left 2
SYMATTR InstName R8
SYMATTR Value 20K
SYMBOL res 224 480 R90
WINDOW 0 32 31 VTop 2
WINDOW 3 59 85 VBottom 2
SYMATTR InstName R9
SYMATTR Value 2.75K
SYMBOL res 528 -16 R0
WINDOW 0 32 17 Left 2
WINDOW 3 31 81 Left 2
SYMATTR InstName R7
SYMATTR Value 10K
SYMBOL res 256 352 R90
WINDOW 0 0 87 VBottom 2
WINDOW 3 1 16 VBottom 2
SYMATTR InstName R11
SYMATTR Value 37K
SYMBOL voltage 96 512 R0
WINDOW 0 -15 56 Left 2
WINDOW 3 -47 80 Right 2
WINDOW 123 -51 84 Right 2
WINDOW 39 0 0 Left 0
SYMATTR InstName V3
SYMATTR Value SINE(1.65 1.65 2000 0 0 0 1)
SYMBOL voltage -320 128 R0
WINDOW 0 -16 55 Left 2
WINDOW 3 47 -4 Right 2
WINDOW 123 0 0 Left 0
WINDOW 39 0 0 Left 0
SYMATTR InstName V2
SYMATTR Value 12
SYMBOL res 96 -80 R0
SYMATTR InstName R6
SYMATTR Value 460
SYMBOL LM311 480 48 R0
WINDOW 0 -17 62 Left 1
WINDOW 3 66 91 Left 2
SYMATTR InstName U1
SYMBOL voltage 576 240 R0
WINDOW 0 -16 55 Left 2
WINDOW 3 47 -4 Right 2
WINDOW 123 0 0 Left 0
WINDOW 39 0 0 Left 0
SYMATTR InstName V4
SYMATTR Value 5V
TEXT -336 304 Left 2 !.lib potentiometer_standard.lib
TEXT -336 352 Left 2 !.tran 0.5ms startup
TEXT -336 328 Left 2 !.lib Occomp.lib
TEXT -352 536 Left 2 ;3.3 V SINE(1.65 1.65 2000 0 0 0 1)\n5.0V SINE(2.5 2.5 2000 0 0 0 1)
TEXT -96 400 Left 2 ;R8 = 20K\n5V: R9 = 4.2K @ +-12V\n3.3V: R9 = 2.75K @ +-12V
TEXT 96 256 Left 2 ;R10 = 100K\n5V: R11 = 63K @ +-12V\n3.3V: R11 = 37K @ +- 12V
