Version 4
SHEET 1 1620 680
WIRE 32 -256 32 -272
WIRE 112 -256 32 -256
WIRE 32 -240 32 -256
WIRE 112 -176 112 -256
WIRE -128 -160 -128 -176
WIRE -160 -144 -256 -144
WIRE -80 -128 -96 -128
WIRE 32 -128 32 -160
WIRE 32 -128 0 -128
WIRE 48 -128 32 -128
WIRE -160 -112 -192 -112
WIRE -128 -80 -128 -96
WIRE 112 -64 112 -80
WIRE -336 -48 -336 -64
WIRE 288 -16 256 -16
WIRE 384 -16 352 -16
WIRE -192 0 -192 -112
WIRE -192 0 -224 0
WIRE 112 32 112 16
WIRE 192 32 112 32
WIRE -224 48 -224 0
WIRE 16 48 16 32
WIRE -192 64 -192 0
WIRE -16 64 -192 64
WIRE 320 64 320 48
WIRE -336 80 -336 32
WIRE -288 80 -336 80
WIRE 112 80 112 32
WIRE 112 80 48 80
WIRE 144 80 112 80
WIRE 256 80 256 -16
WIRE 256 80 224 80
WIRE 288 80 256 80
WIRE -256 96 -256 -144
WIRE -16 96 -256 96
WIRE 384 96 384 -16
WIRE 384 96 352 96
WIRE -288 112 -288 80
WIRE 288 112 256 112
WIRE -336 128 -336 80
WIRE 16 128 16 112
WIRE 256 144 256 112
WIRE 320 144 320 128
WIRE -256 176 -256 96
WIRE -160 176 -256 176
WIRE 112 176 112 80
WIRE 112 176 -80 176
WIRE 144 176 112 176
WIRE -336 224 -336 208
WIRE -256 240 -256 176
WIRE -160 240 -256 240
WIRE 384 240 384 96
WIRE 384 240 -80 240
WIRE 416 240 384 240
FLAG -224 48 0
FLAG 144 176 SqWave
FLAG 416 240 TriWave
FLAG -336 -64 +V
FLAG -128 -176 +V
FLAG 16 32 +V
FLAG -128 -80 -V
FLAG 16 128 -V
FLAG -336 224 -V
FLAG 32 -272 +V
FLAG 320 144 -V
FLAG 320 48 +V
FLAG 256 144 0
FLAG -288 112 0
SYMBOL potentiometer 128 96 R270
WINDOW 0 50 17 VRight 2
WINDOW 3 -110 -38 VRight 1
SYMATTR InstName R1
SYMATTR Value Rtot=100K wiper=0.175
SYMBOL res 48 -144 R180
WINDOW 0 -31 96 Left 2
WINDOW 3 -52 66 Left 2
SYMATTR InstName R5
SYMATTR Value 2.7K
SYMBOL OpAmps\\opamp2 -128 -192 R0
WINDOW 3 47 99 Center 1
WINDOW 0 -19 64 Left 1
SYMATTR Value LM393
SYMATTR InstName U1a
SYMBOL OpAmps\\opamp2 16 16 R0
WINDOW 3 48 98 Center 1
WINDOW 0 -21 64 Left 1
SYMATTR Value LM393
SYMATTR InstName U1b
SYMBOL voltage -336 -64 R0
WINDOW 0 -14 56 Left 2
WINDOW 3 15 8 Left 2
WINDOW 123 0 0 Left 0
WINDOW 39 0 0 Left 0
SYMATTR InstName V1
SYMATTR Value 7.4V
SYMBOL cap 288 0 R270
WINDOW 0 32 -15 VTop 2
WINDOW 3 32 64 VTop 2
SYMATTR InstName C1
SYMATTR Value 0.001µf
SYMBOL res -64 224 R90
WINDOW 0 0 79 VBottom 2
WINDOW 3 -29 23 VTop 2
SYMATTR InstName R2
SYMATTR Value 100K
SYMBOL res 16 -144 R90
WINDOW 0 0 80 VBottom 2
WINDOW 3 -28 24 VTop 2
SYMATTR InstName R4
SYMATTR Value 20K
SYMBOL res -64 160 R90
WINDOW 0 1 81 VBottom 2
WINDOW 3 -27 25 VTop 2
SYMATTR InstName R3
SYMATTR Value 150K
SYMBOL pnp 48 -80 M180
WINDOW 0 53 27 Left 2
WINDOW 3 52 62 Left 2
SYMATTR InstName Q1
SYMATTR Value 2N3906
SYMBOL CA3140 320 96 R0
WINDOW 0 -18 -1 Left 1
WINDOW 3 -66 82 Left 1
SYMATTR InstName U2
SYMBOL voltage -336 112 R0
WINDOW 0 -15 57 Left 2
WINDOW 3 11 99 Left 2
WINDOW 123 0 0 Left 0
WINDOW 39 0 0 Left 0
SYMATTR InstName V2
SYMATTR Value 7.4V
SYMBOL res 96 -80 R0
SYMATTR InstName R6
SYMATTR Value 470
TEXT -352 -288 Left 2 !.lib potentiometer_standard.lib
TEXT -352 -240 Left 2 !.tran 4ms startup
TEXT -352 -264 Left 2 !.lib Occomp.lib
